Circuit: * D:\Storage\Documents\Faks\VIII semestar\EMC\Vezbe\EMC - LT-Spice\Vezbe09\Fajlovi\Zadatak03\Draft2.asc

.OP point found by inspection.
Heightened Def Con from 0.00105 to 0.00105

Date: Mon May 23 03:11:32 2022
Total elapsed time: 28.921 seconds.

tnom = 27
temp = 27
method = modified trap
totiter = 14513731
traniter = 14513731
tranpoints = 3938369
accept = 2748172
rejected = 1190198
matrix size = 21
fillins = 10
solver = Normal
Matrix Compiler1: 1.48 KB object code size  0.2/0.1/[0.1]
Matrix Compiler2: 1.65 KB object code size  0.1/0.2/[0.1]

