Circuit: * D:\Storage\Documents\Faks\VIII semestar\EMC\Vezbe\EMC - LT-Spice\Vezbe09\Fajlovi\Zadatak03\Zadatak03.asc

.OP point found by inspection.

Date: Tue May 10 03:38:00 2022
Total elapsed time: 0.030 seconds.

tnom = 27
temp = 27
method = trap
totiter = 0
traniter = 0
tranpoints = 0
accept = 0
rejected = 0
matrix size = 8
fillins = 0
solver = Normal

