Circuit: * D:\Storage\Documents\Faks\VIII semestar\EMC\Vezbe\EMC - LT-Spice\Vezbe09\Fajlovi\Zadatak01\Zadatak01.asc

.OP point found by inspection.

Date: Tue May 10 03:33:37 2022
Total elapsed time: 0.132 seconds.

tnom = 27
temp = 27
method = modified trap
totiter = 40171
traniter = 40171
tranpoints = 20056
accept = 20050
rejected = 6
matrix size = 3
fillins = 0
solver = Normal
Matrix Compiler1: off  [0.0]/0.0/0.0
Matrix Compiler2:      15 opcodes  0.1/[0.0]/0.0

